%nprocshared=4
%mem=3GB
#p b3lyp empiricaldispersion=gd3bj 6-31g scrf=(pcm,solvent=water) opt freq=noraman

Glutamic Acid Nitro-Anion

2 1
 C                 -3.57129624   -5.95607045   -0.51936743
 C                 -2.19140524   -5.95607045   -0.51936743
 C                 -1.47206924   -4.73942645   -0.51936743
 C                 -2.16965824   -3.50753045   -0.51729743
 C                 -4.27010524   -4.73596345   -0.51837543
 C                 -0.03701724   -4.74790945   -0.52104743
 C                 -1.42022624   -2.27084345   -0.51582643
 C                 -0.00537924   -2.31911845   -0.51764343
 C                  0.66631076   -3.58729445   -0.52073543
 C                  0.74034976   -1.11840745   -0.51590643
 H                  1.83938476   -1.17506345   -0.51732443
 C                  0.10173176    0.10477555   -0.51222543
 C                 -1.30327624    0.15958155   -0.51030343
 H                  0.47256876   -5.72367845   -0.52287243
 H                 -4.13051724   -6.90298545   -0.52022143
 H                 -1.63238624   -6.90401145   -0.52007343
 H                 -5.37020024   -4.74288645   -0.51865243
 H                  1.76712776   -3.58777445   -0.52236443
 H                  0.68233976    1.03873855   -0.51075843
 H                 -1.80600124    1.13810555   -0.50732243
 N                 -3.58364324   -3.53739445   -0.51688843
 N                 -2.04814124   -1.00354545   -0.51222043
 Ni                -3.86382140   -1.60342522   -0.44464647



